*HEADING
cubit(/jekozdon/Box Sync/codes/multigrid_CG/meshes/triangle.inp): 04/20/2018: 15
version: 15.2
**
********************************** P A R T S **********************************
*PART, NAME=Part-Default
**
********************************** N O D E S **********************************
*NODE, NSET=ALLNODES
       1,    5.000000e-01,    5.000000e-01,    0.000000e+00
       2,    3.750000e-01,    6.250000e-01,    0.000000e+00
       3,    3.701128e-01,    5.025097e-01,    0.000000e+00
       4,    4.584992e-01,    4.584571e-01,    0.000000e+00
       5,    2.500000e-01,    7.500000e-01,    0.000000e+00
       6,    2.518629e-01,    5.856316e-01,    0.000000e+00
       7,    1.250000e-01,    8.750000e-01,    0.000000e+00
       8,    1.250544e-01,    6.876849e-01,    0.000000e+00
       9,    0.000000e+00,    1.000000e+00,    0.000000e+00
      10,    0.000000e+00,    8.000000e-01,    0.000000e+00
      11,    0.000000e+00,    6.000000e-01,    0.000000e+00
      12,    1.312912e-01,    5.107665e-01,    0.000000e+00
      13,    0.000000e+00,    4.000000e-01,    0.000000e+00
      14,    1.449350e-01,    3.376110e-01,    0.000000e+00
      15,    0.000000e+00,    2.000000e-01,    0.000000e+00
      16,    1.668458e-01,    1.658289e-01,    0.000000e+00
      17,    0.000000e+00,    0.000000e+00,    0.000000e+00
      18,    2.000000e-01,    0.000000e+00,    0.000000e+00
      19,    2.637863e-01,    4.377689e-01,    0.000000e+00
      20,    2.926435e-01,    2.907368e-01,    0.000000e+00
** ... 14 like lines cut
**
********************************** E L E M E N T S ****************************
*ELEMENT, TYPE=S4R, ELSET=EB1
       1,       1,       2,       3,       4
       2,       2,       5,       6,       3
       3,       5,       7,       8,       6
       4,       7,       9,      10,       8
       5,      10,      11,      12,       8
       6,      11,      13,      14,      12
       7,      13,      15,      16,      14
       8,      15,      17,      18,      16
       9,       8,      12,      19,       6
      10,      12,      14,      20,      19
      11,      14,      16,      21,      20
      12,      16,      18,      22,      21
      13,       6,      19,      23,       3
      14,      19,      20,      24,      23
      15,      20,      21,      25,      24
      16,      21,      22,      26,      25
      17,       3,      23,      27,       4
      18,      23,      24,      28,      27
      19,      24,      25,      29,      28
      20,      25,      26,      30,      29
** ... 4 like lines cut
**
********************************** S I D E S E T S **********************************
*ELSET, ELSET=SS1_E1
       1,       2,       3,       4,      21
*ELSET, ELSET=SS1_E2
       8,      12,      16,      20,      21,      22,      23,      24
*SURFACE, NAME=SS1
SS1_E1, E1
SS1_E2, E2
*ELSET, ELSET=SS2_E1
       5,       6,       7,       8
*ELSET, ELSET=SS2_E2
       4
*SURFACE, NAME=SS2
SS2_E1, E1
SS2_E2, E2
**
********************************** P R O P E R T I E S ************************
*SHELL SECTION, ELSET=EB1, SECTION INTEGRATION=SIMPSON, MATERIAL=Default-Steel
1.000000e+00
**
*END PART
**
**
**
********************************** E N D   P A R T S **********************************
**
**
********************************** A S S E M B L Y ************************************
**
*ASSEMBLY, NAME=ASSEMBLY1
**
*INSTANCE, NAME=Part-Default_1, PART=Part-Default
*END INSTANCE
**
*END ASSEMBLY
**
**
**
*MATERIAL, NAME = Default-Steel
*ELASTIC, TYPE=ISOTROPIC
2.068000e+05, 2.900000e-01
*DENSITY
7.000000e-06
*CONDUCTIVITY,TYPE=ISO
4.500000e-02
*SPECIFIC HEAT
5.000000e+02
**
**
************************************** H I S T O R Y *************************************
**
*PREPRINT
**
**************************************** S T E P 1 ***************************************
*STEP,INC=100,NAME=Default Set
**
*STATIC
1, 1, 1e-05, 1
**
**
**
**
*END STEP
